
     RDKit          3D

 24 23  0  0  0  0  0  0  0  0999 V2000
   -2.3779   -1.5651    0.6858 C   0  0  0  0  0  0  0  0  0  0  0  0
   -2.3332   -0.2329    0.1304 N   0  0  0  0  0  0  0  0  0  0  0  0
   -1.3648    0.0772   -0.8648 C   0  0  0  0  0  0  0  0  0  2  0  0
   -0.2048    0.4683   -0.4297 N   0  0  0  0  0  0  0  0  0  3  0  0
    0.0686    0.5757    0.9380 N   0  0  0  0  0  0  0  0  0  4  0  0
    1.2903    0.4915    1.3428 C   0  0  0  0  0  0  0  0  0  1  0  0
    2.2967    0.2941    0.3808 N   0  0  0  0  0  0  0  0  0  0  0  0
    3.5787    0.9841    0.4216 C   0  0  0  0  0  0  0  0  0  0  0  0
    2.0848   -0.6292   -0.7144 C   0  0  0  0  0  0  0  0  0  0  0  0
   -3.2422    0.8106    0.5486 C   0  0  0  0  0  0  0  0  0  0  0  0
   -2.5783   -2.2600   -0.1572 H   0  0  0  0  0  0  0  0  0  0  0  0
   -1.3959   -1.8494    1.1530 H   0  0  0  0  0  0  0  0  0  0  0  0
   -3.1755   -1.5941    1.4435 H   0  0  0  0  0  0  0  0  0  0  0  0
   -1.5907   -0.0108   -1.9276 H   0  0  0  0  0  0  0  0  0  0  0  0
    1.5491    0.5707    2.4108 H   0  0  0  0  0  0  0  0  0  0  0  0
    3.6387    1.5955   -0.5047 H   0  0  0  0  0  0  0  0  0  0  0  0
    3.7044    1.5809    1.3459 H   0  0  0  0  0  0  0  0  0  0  0  0
    4.3522    0.1764    0.3344 H   0  0  0  0  0  0  0  0  0  0  0  0
    3.0344   -1.1455   -1.0014 H   0  0  0  0  0  0  0  0  0  0  0  0
    1.7581   -0.0987   -1.6506 H   0  0  0  0  0  0  0  0  0  0  0  0
    1.3822   -1.3955   -0.3858 H   0  0  0  0  0  0  0  0  0  0  0  0
   -3.2241    1.6528   -0.1514 H   0  0  0  0  0  0  0  0  0  0  0  0
   -4.2684    0.3751    0.4989 H   0  0  0  0  0  0  0  0  0  0  0  0
   -2.9826    1.1284    1.5818 H   0  0  0  0  0  0  0  0  0  0  0  0
  1  2  1  0
  2  3  1  0
  3  4  2  0
  4  5  1  0
  5  6  2  0
  6  7  1  0
  7  8  1  0
  7  9  1  0
  2 10  1  0
  1 11  1  0
  1 12  1  0
  1 13  1  0
  3 14  1  0
  6 15  1  0
  8 16  1  0
  8 17  1  0
  8 18  1  0
  9 19  1  0
  9 20  1  0
  9 21  1  0
 10 22  1  0
 10 23  1  0
 10 24  1  0
M  END
>  <SMILES_QCArchive>  (1) 
CN(/[CH:2]=[N:3]\[N:4]=[CH:1]/N(C)C)C

>  <Energy_QCArchive>  (1) 
[-456.092223203219, -456.0885731181176, -456.092223286625, -456.0949725078639, -456.09502756691927, -456.09358046368544, -456.0905789794252, -456.08594934440157, -456.0905791002361, -456.0935830228804, -456.0950295731965, -456.0945830565433, -456.0827096878557, -456.08857236759536, -456.0945836370485, -456.07878538770626, -456.08594922334464, -456.0733526310164, -456.08270968720535, -456.06612636920863, -456.07878567958164, -456.0572277586284, -456.0733533157069, -456.06612676232567]

>  <Angles_QCArchive>  (1) 
[-120, -90, 120, 180, -165, -135, -105, -75, 105, 135, 165, -150, -60, 90, 150, -45, 75, -30, 60, -15, 45, 0, 30, 15]

>  <Method_QCArchive>  (1) 
b3lyp-d3bj

>  <Basis_QCArchive>  (1) 
dzvp

>  <Torsion_Atoms_QCArchive>  (1) 
(0, 6, 7, 1)

>  <Program_`QCArchive>  (1) 
psi4

$$$$

     RDKit          3D

 23 23  0  0  0  0  0  0  0  0999 V2000
   -2.6025    0.8493    1.1139 C   0  0  0  0  0  0  0  0  0  0  0  0
   -2.1278    0.0011    0.0064 C   0  0  0  0  0  0  0  0  0  4  0  0
   -0.8892   -0.2892   -0.0740 N   0  0  0  0  0  0  0  0  0  3  0  0
   -0.0131    0.2010    0.8855 N   0  0  0  0  0  0  0  0  0  2  0  0
    1.2651    0.1828    0.7009 C   0  0  0  0  0  0  0  0  0  1  0  0
    2.2445    0.6376    1.5722 C   0  0  0  0  0  0  0  0  0  0  0  0
    3.4742    0.4295    0.9827 C   0  0  0  0  0  0  0  0  0  0  0  0
    3.2123   -0.1361   -0.2095 N   0  0  0  0  0  0  0  0  0  0  0  0
    1.9004   -0.2831   -0.3779 N   0  0  0  0  0  0  0  0  0  0  0  0
    1.2178   -0.8542   -1.5345 C   0  0  0  0  0  0  0  0  0  0  0  0
   -3.0870   -0.5063   -1.0013 C   0  0  0  0  0  0  0  0  0  0  0  0
   -3.7092    0.8992    1.1765 H   0  0  0  0  0  0  0  0  0  0  0  0
   -2.2506    1.9035    0.9411 H   0  0  0  0  0  0  0  0  0  0  0  0
   -2.1401    0.5611    2.0975 H   0  0  0  0  0  0  0  0  0  0  0  0
    2.0598    1.0810    2.5510 H   0  0  0  0  0  0  0  0  0  0  0  0
    4.4491    0.6812    1.4157 H   0  0  0  0  0  0  0  0  0  0  0  0
    3.9392   -0.4139   -0.8922 H   0  0  0  0  0  0  0  0  0  0  0  0
    0.5099   -0.1266   -1.9921 H   0  0  0  0  0  0  0  0  0  0  0  0
    0.6044   -1.7304   -1.2382 H   0  0  0  0  0  0  0  0  0  0  0  0
    2.0014   -1.1346   -2.2798 H   0  0  0  0  0  0  0  0  0  0  0  0
   -2.6528   -1.2822   -1.6524 H   0  0  0  0  0  0  0  0  0  0  0  0
   -3.4284    0.3109   -1.6823 H   0  0  0  0  0  0  0  0  0  0  0  0
   -3.9773   -0.9814   -0.5095 H   0  0  0  0  0  0  0  0  0  0  0  0
  1  2  1  0
  2  3  2  0
  3  4  1  0
  4  5  2  0
  5  6  1  0
  6  7  2  0
  7  8  1  0
  8  9  1  0
  9 10  1  0
  2 11  1  0
  9  5  1  0
  1 12  1  0
  1 13  1  0
  1 14  1  0
  6 15  1  0
  7 16  1  0
  8 17  1  0
 10 18  1  0
 10 19  1  0
 10 20  1  0
 11 21  1  0
 11 22  1  0
 11 23  1  0
M  END
>  <SMILES_QCArchive>  (2) 
C[C:4](=[N:3]/[N:2]=[c:1]\1/cc[nH]n1C)C

>  <Energy_QCArchive>  (2) 
[-492.98169641579165, -492.9815341667422, -492.981227810417, -492.98070729193927, -492.98034919557404, -492.9792870470036, -492.9792268665781, -492.97744420203344, -492.97805977199215, -492.97507321291704, -492.9769539388184, -492.9717072619522, -492.9757574852054, -492.9682889911138, -492.9739099797919, -492.964933994611, -492.97078144058935, -492.9600506363183, -492.9661631576447, -492.9535285093898, -492.9598830551074, -492.9454736935479, -492.9519730892375, -492.94277366926957]

>  <Angles_QCArchive>  (2) 
[180, -165, 165, -150, 150, -135, 135, -120, 120, -105, 105, -90, 90, -75, 75, -60, 60, -45, 45, -30, 30, -15, 15, 0]

>  <Method_QCArchive>  (2) 
b3lyp-d3bj

>  <Basis_QCArchive>  (2) 
dzvp

>  <Torsion_Atoms_QCArchive>  (2) 
(2, 7, 8, 3)

>  <Program_`QCArchive>  (2) 
psi4

$$$$

     RDKit          3D

 27 27  0  0  0  0  0  0  0  0999 V2000
   -0.2922   -1.0064    1.7217 C   0  0  0  0  0  0  0  0  0  0  0  0
   -0.9638    0.3250    1.6239 C   0  0  0  0  0  0  0  0  0  1  0  0
   -0.9628    0.8971    0.3009 N   0  0  0  0  0  0  0  0  0  2  0  0
   -1.7410    0.2114   -0.7109 C   0  0  0  0  0  0  0  0  0  0  0  0
   -3.2042    0.3856   -0.3007 C   0  0  0  0  0  0  0  0  0  0  0  0
   -0.3117    2.0405   -0.0252 N   0  0  0  0  0  0  0  0  0  3  0  0
    0.8658    1.9975   -0.3281 N   0  0  0  0  0  0  0  0  0  4  0  0
    1.6585    0.8970   -0.3855 C   0  0  0  0  0  0  0  0  0  0  0  0
    1.9854   -0.0251   -1.3488 C   0  0  0  0  0  0  0  0  0  0  0  0
    2.8415   -0.9060   -0.8258 N   0  0  0  0  0  0  0  0  0  0  0  0
    3.0892   -0.5902    0.4563 C   0  0  0  0  0  0  0  0  0  0  0  0
    2.3751    0.4945    0.7143 N   0  0  0  0  0  0  0  0  0  0  0  0
    1.4925    0.0041   -2.6531 N   0  0  0  0  0  4  0  0  0  0  0  0
    0.7192    0.8466   -3.1340 O   0  0  0  0  0  0  0  0  0  0  0  0
    1.8939   -0.9925   -3.5347 O   0  0  0  0  0  1  0  0  0  0  0  0
    0.4797   -0.9682    2.5100 H   0  0  0  0  0  0  0  0  0  0  0  0
    0.2242   -1.3257    0.7840 H   0  0  0  0  0  0  0  0  0  0  0  0
   -1.0029   -1.8143    2.0183 H   0  0  0  0  0  0  0  0  0  0  0  0
   -0.4452    1.0453    2.3254 H   0  0  0  0  0  0  0  0  0  0  0  0
   -2.0255    0.2347    1.9505 H   0  0  0  0  0  0  0  0  0  0  0  0
   -1.5418   -0.8711   -0.7401 H   0  0  0  0  0  0  0  0  0  0  0  0
   -1.5728    0.6544   -1.6976 H   0  0  0  0  0  0  0  0  0  0  0  0
   -3.4684   -0.4594    0.3550 H   0  0  0  0  0  0  0  0  0  0  0  0
   -3.2907    1.3788    0.1852 H   0  0  0  0  0  0  0  0  0  0  0  0
   -3.8073    0.4004   -1.2293 H   0  0  0  0  0  0  0  0  0  0  0  0
    3.2569   -1.7177   -1.3340 H   0  0  0  0  0  0  0  0  0  0  0  0
    3.7481   -1.1365    1.1210 H   0  0  0  0  0  0  0  0  0  0  0  0
  1  2  1  0
  2  3  1  0
  3  4  1  0
  4  5  1  0
  3  6  1  0
  6  7  2  0
  7  8  1  0
  8  9  2  0
  9 10  1  0
 10 11  1  0
 11 12  2  0
  9 13  1  0
 13 14  2  0
 13 15  1  0
 12  8  1  0
  1 16  1  0
  1 17  1  0
  1 18  1  0
  2 19  1  0
  2 20  1  0
  4 21  1  0
  4 22  1  0
  5 23  1  0
  5 24  1  0
  5 25  1  0
 10 26  1  0
 11 27  1  0
M  CHG  2  13   1  15  -1
M  END
>  <SMILES_QCArchive>  (3) 
C[CH2:1][N:2](CC)/[N:3]=[N:4]\c1c([nH]cn1)[N+](=O)[O-]

>  <Energy_QCArchive>  (3) 
[-752.8755700299473, -752.8765657725438, -752.8789436307352, -752.8730091859264, -752.8829108129619, -752.8826176478655, -752.8879445997857, -752.886361949837, -752.890515727511, -752.8896324110116, -752.8901005919424, -752.8877984300811, -752.8909999216414, -752.8855913311878, -752.8902139063804, -752.881914615196, -752.8905710670159, -752.8793085242944, -752.8899044637129, -752.8796413684831, -752.8880851801936, -752.8807622706018, -752.885753055158, -752.8829350882097]

>  <Angles_QCArchive>  (3) 
[90, 120, 75, 105, 135, 60, 150, 45, 165, 30, 180, -165, 15, -150, 0, -135, -15, -120, -30, -105, -45, -90, -60, -75]

>  <Method_QCArchive>  (3) 
b3lyp-d3bj

>  <Basis_QCArchive>  (3) 
dzvp

>  <Torsion_Atoms_QCArchive>  (3) 
(5, 11, 9, 8)

>  <Program_`QCArchive>  (3) 
psi4

$$$$

     RDKit          3D

 20 19  0  0  0  0  0  0  0  0999 V2000
   -3.1710   -0.1032    0.3912 C   0  0  0  0  0  0  0  0  0  1  0  0
   -1.8082    0.2240   -0.0106 N   0  0  0  0  0  0  0  0  0  2  0  0
   -0.7219   -0.6685    0.3588 C   0  0  0  0  0  0  0  0  0  0  0  0
    0.5497   -0.0533   -0.1814 C   0  0  0  0  0  0  0  0  0  0  0  0
    1.7753   -0.8409    0.1282 C   0  0  0  0  0  0  0  0  0  0  0  0
    2.9147   -0.0683   -0.4869 C   0  0  0  0  0  0  0  0  0  0  0  0
    3.5906   -0.4445   -1.4479 O   0  0  0  0  0  0  0  0  0  0  0  0
    3.2250    1.1728    0.0794 O   0  0  0  0  0  0  0  0  0  0  0  0
   -1.5914    1.3878   -0.7546 N   0  0  0  0  0  0  0  0  0  3  0  0
   -1.5707    2.5271   -0.2335 O   0  0  0  0  0  0  0  0  0  4  0  0
   -3.8993    0.4968   -0.1986 H   0  0  0  0  0  0  0  0  0  0  0  0
   -3.3356   -1.1634    0.2363 H   0  0  0  0  0  0  0  0  0  0  0  0
   -3.2807    0.1668    1.4681 H   0  0  0  0  0  0  0  0  0  0  0  0
   -0.6945   -0.7468    1.4519 H   0  0  0  0  0  0  0  0  0  0  0  0
   -0.9050   -1.6954   -0.0393 H   0  0  0  0  0  0  0  0  0  0  0  0
    0.5990    0.9703    0.2546 H   0  0  0  0  0  0  0  0  0  0  0  0
    0.4494    0.0499   -1.2792 H   0  0  0  0  0  0  0  0  0  0  0  0
    1.9968   -0.9385    1.2049 H   0  0  0  0  0  0  0  0  0  0  0  0
    1.7455   -1.8577   -0.3391 H   0  0  0  0  0  0  0  0  0  0  0  0
    4.1322    1.5851    0.0625 H   0  0  0  0  0  0  0  0  0  0  0  0
  1  2  1  0
  2  3  1  0
  3  4  1  0
  4  5  1  0
  5  6  1  0
  6  7  2  0
  6  8  1  0
  2  9  1  0
  9 10  2  0
  1 11  1  0
  1 12  1  0
  1 13  1  0
  3 14  1  0
  3 15  1  0
  4 16  1  0
  4 17  1  0
  5 18  1  0
  5 19  1  0
  8 20  1  0
M  END
>  <SMILES_QCArchive>  (4) 
[CH3:1][N:2](CCCC(=O)O)[N:3]=[O:4]

>  <Energy_QCArchive>  (4) 
[-531.7758383681236, -531.7623508817197, -531.7630537940709, -531.7491786848614, -531.7595164701877, -531.7758378153263, -531.780776807639, -531.77971694397, -531.7688855639558, -531.7540640010207, -531.770238121839, -531.7702247381142, -531.7554798751694, -531.7490225542134, -531.7688857341435, -531.779716694949, -531.7595161335704, -531.7471109118092, -531.7763546112509, -531.7768979261125, -531.7490235592418, -531.7807320115554, -531.7813138429472, -531.7824784859137]

>  <Angles_QCArchive>  (4) 
[-150, -60, 60, 90, 120, 150, 180, -165, -135, -75, -45, 45, 75, 105, 135, 165, -120, -90, -30, 30, -105, -15, 15, 0]

>  <Method_QCArchive>  (4) 
b3lyp-d3bj

>  <Basis_QCArchive>  (4) 
dzvp

>  <Torsion_Atoms_QCArchive>  (4) 
(1, 6, 5, 8)

>  <Program_`QCArchive>  (4) 
psi4

$$$$

     RDKit          3D

 23 23  0  0  0  0  0  0  0  0999 V2000
    2.3760    1.5521    0.9965 C   0  0  0  0  0  0  0  0  0  0  0  0
    1.3326    1.0327    0.0496 C   0  0  0  0  0  0  0  0  0  0  0  0
    1.1597   -0.3829    0.1002 N   0  0  0  0  0  0  0  0  0  3  0  0
    2.1435   -1.3456   -0.3409 C   0  0  0  0  0  0  0  0  0  4  0  0
   -0.0392   -0.8844    0.6120 N   0  0  0  0  0  0  0  0  0  2  0  0
   -1.1808   -0.6909    0.1020 C   0  0  0  0  0  0  0  0  0  1  0  0
   -2.5723   -1.0941    0.4322 C   0  0  0  0  0  0  0  0  0  0  0  0
   -2.9807    0.2450   -0.2026 C   0  0  0  0  0  0  0  0  0  0  0  0
   -1.7384    0.0199   -1.0774 C   0  0  0  0  0  0  0  0  0  0  0  0
    3.2641    1.8500    0.3835 H   0  0  0  0  0  0  0  0  0  0  0  0
    2.7099    0.8200    1.7375 H   0  0  0  0  0  0  0  0  0  0  0  0
    2.0447    2.4928    1.5038 H   0  0  0  0  0  0  0  0  0  0  0  0
    0.3849    1.5607    0.2748 H   0  0  0  0  0  0  0  0  0  0  0  0
    1.5660    1.3120   -1.0156 H   0  0  0  0  0  0  0  0  0  0  0  0
    2.9629   -0.9181   -0.9233 H   0  0  0  0  0  0  0  0  0  0  0  0
    2.5563   -1.8885    0.5584 H   0  0  0  0  0  0  0  0  0  0  0  0
    1.6853   -2.1498   -0.9623 H   0  0  0  0  0  0  0  0  0  0  0  0
   -2.8063   -1.1765    1.5039 H   0  0  0  0  0  0  0  0  0  0  0  0
   -2.8872   -1.9238   -0.2186 H   0  0  0  0  0  0  0  0  0  0  0  0
   -2.7968    1.0885    0.5071 H   0  0  0  0  0  0  0  0  0  0  0  0
   -3.9327    0.2381   -0.7283 H   0  0  0  0  0  0  0  0  0  0  0  0
   -2.0272   -0.6825   -1.9030 H   0  0  0  0  0  0  0  0  0  0  0  0
   -1.2242    0.9254   -1.3897 H   0  0  0  0  0  0  0  0  0  0  0  0
  1  2  1  0
  2  3  1  0
  3  4  1  0
  3  5  1  0
  5  6  2  3
  6  7  1  0
  7  8  1  0
  8  9  1  0
  9  6  1  0
  1 10  1  0
  1 11  1  0
  1 12  1  0
  2 13  1  0
  2 14  1  0
  4 15  1  0
  4 16  1  0
  4 17  1  0
  7 18  1  0
  7 19  1  0
  8 20  1  0
  8 21  1  0
  9 22  1  0
  9 23  1  0
M  END
>  <SMILES_QCArchive>  (5) 
CC[N@@:3]([CH3:4])[N:2]=[C:1]1CCC1

>  <Energy_QCArchive>  (5) 
[-384.67314952740423, -384.6750323706528, -384.6723961646033, -384.673869662085, -384.67554706131256, -384.6744112867336, -384.6720250330348, -384.6744789723856, -384.67589218583095, -384.6740245415887, -384.67240126535035, -384.67502913217396, -384.67613012220926, -384.67395760634463, -384.6731828123401, -384.6749644795815, -384.67578545276547, -384.67318289454977, -384.6737191634045, -384.67390713673524, -384.67455563524976, -384.6737192409681, -384.6723918067178, -384.67384171023735]

>  <Angles_QCArchive>  (5) 
[-90, 90, -105, -75, 75, 105, -120, -60, 60, 120, -135, -45, 45, 135, -150, -30, 30, 150, -165, -15, 15, 165, 0, 180]

>  <Method_QCArchive>  (5) 
b3lyp-d3bj

>  <Basis_QCArchive>  (5) 
dzvp

>  <Torsion_Atoms_QCArchive>  (5) 
(0, 7, 8, 5)

>  <Program_`QCArchive>  (5) 
psi4

$$$$
