mol_0
     RDKit          3D

 20 19  0  0  0  0  0  0  0  0999 V2000
    2.7711   -0.3626   -0.8541 C   0  0  0  0  0  0  0  0  0  0  0  0
    1.7515    0.3337    0.0348 C   0  0  0  0  0  0  0  0  0  0  0  0
    0.3775   -0.3171   -0.0850 C   0  0  0  0  0  0  0  0  0  0  0  0
   -0.5606    0.4336    0.8321 C   0  0  0  0  0  0  0  0  0  0  0  0
   -1.9705   -0.1136    0.8101 C   0  0  0  0  0  0  0  0  0  0  0  0
   -2.6890    0.0867   -0.5164 C   0  0  0  0  0  0  0  0  0  0  0  0
   -2.2282   -0.4993   -1.3167 H   0  0  0  0  0  0  0  0  0  0  0  0
   -3.7317   -0.2360   -0.4301 H   0  0  0  0  0  0  0  0  0  0  0  0
   -2.6849    1.1409   -0.8111 H   0  0  0  0  0  0  0  0  0  0  0  0
   -2.5517    0.3894    1.5926 H   0  0  0  0  0  0  0  0  0  0  0  0
   -1.9665   -1.1806    1.0624 H   0  0  0  0  0  0  0  0  0  0  0  0
   -0.5814    1.4983    0.5670 H   0  0  0  0  0  0  0  0  0  0  0  0
   -0.1867    0.3768    1.8625 H   0  0  0  0  0  0  0  0  0  0  0  0
    0.4301   -1.3744    0.1994 H   0  0  0  0  0  0  0  0  0  0  0  0
    0.0398   -0.2672   -1.1255 H   0  0  0  0  0  0  0  0  0  0  0  0
    2.1018    0.2938    1.0731 H   0  0  0  0  0  0  0  0  0  0  0  0
    1.6973    1.3913   -0.2500 H   0  0  0  0  0  0  0  0  0  0  0  0
    2.8788   -1.4161   -0.5767 H   0  0  0  0  0  0  0  0  0  0  0  0
    3.7501    0.1166   -0.7550 H   0  0  0  0  0  0  0  0  0  0  0  0
    2.4734   -0.3125   -1.9064 H   0  0  0  0  0  0  0  0  0  0  0  0
  1  2  1  0
  2  3  1  0
  3  4  1  0
  4  5  1  0
  5  6  1  0
  6  7  1  0
  6  8  1  0
  6  9  1  0
  5 10  1  0
  5 11  1  0
  4 12  1  0
  4 13  1  0
  3 14  1  0
  3 15  1  0
  2 16  1  0
  2 17  1  0
  1 18  1  0
  1 19  1  0
  1 20  1  0
M  END
>  <atom_map>  (1) 
{1: 1, 2: 2, 3: 3, 4: 4}

>  <torsion_atom_ids>  (1) 
(1, 2, 3, 4)

>  <torsion_angle>  (1) 
-180.0

>  <tpg_mmff94_opt_v>  (1) 
-3.888361

>  <potential_energy>  (1) 
-148730.01678

>  <confID>  (1) 
0

>  <smiles>  (1) 
[H]C([H])([H])C([H])([H])C([H])([H])C([H])([H])C([H])([H])C([H])([H])[H]

>  <rel_potential_energy>  (1) 
0.0

>  <botlzmann_weight>  (1) 
0.0

>  <parent_mol>  (1) 
<rdkit.Chem.rdchem.Mol object at 0x2b428c6b9f80>

>  <parent_torsion_atom_ids>  (1) 
(2, 3, 1, 4)

$$$$
mol_1
     RDKit          3D

 20 19  0  0  0  0  0  0  0  0999 V2000
    2.7682   -0.3630   -0.8587 C   0  0  0  0  0  0  0  0  0  0  0  0
    1.7517    0.3337    0.0346 C   0  0  0  0  0  0  0  0  0  0  0  0
    0.3774   -0.3170   -0.0849 C   0  0  0  0  0  0  0  0  0  0  0  0
   -0.5609    0.4335    0.8321 C   0  0  0  0  0  0  0  0  0  0  0  0
   -0.6050   -0.1441    2.2301 C   0  0  0  0  0  0  0  0  0  0  0  0
   -1.3027   -1.4950    2.3205 C   0  0  0  0  0  0  0  0  0  0  0  0
   -0.7521   -2.2748    1.7875 H   0  0  0  0  0  0  0  0  0  0  0  0
   -1.3826   -1.8048    3.3676 H   0  0  0  0  0  0  0  0  0  0  0  0
   -2.3151   -1.4428    1.9073 H   0  0  0  0  0  0  0  0  0  0  0  0
   -1.1512    0.5565    2.8741 H   0  0  0  0  0  0  0  0  0  0  0  0
    0.4035   -0.2262    2.6505 H   0  0  0  0  0  0  0  0  0  0  0  0
   -1.5730    0.3896    0.4093 H   0  0  0  0  0  0  0  0  0  0  0  0
   -0.3056    1.4992    0.8808 H   0  0  0  0  0  0  0  0  0  0  0  0
    0.4268   -1.3876    0.1325 H   0  0  0  0  0  0  0  0  0  0  0  0
    0.0295   -0.2143   -1.1200 H   0  0  0  0  0  0  0  0  0  0  0  0
    2.1096    0.2933    1.0697 H   0  0  0  0  0  0  0  0  0  0  0  0
    1.7012    1.3910   -0.2520 H   0  0  0  0  0  0  0  0  0  0  0  0
    2.8779   -1.4161   -0.5808 H   0  0  0  0  0  0  0  0  0  0  0  0
    3.7474    0.1169   -0.7641 H   0  0  0  0  0  0  0  0  0  0  0  0
    2.4660   -0.3137   -1.9097 H   0  0  0  0  0  0  0  0  0  0  0  0
  1  2  1  0
  2  3  1  0
  3  4  1  0
  4  5  1  0
  5  6  1  0
  6  7  1  0
  6  8  1  0
  6  9  1  0
  5 10  1  0
  5 11  1  0
  4 12  1  0
  4 13  1  0
  3 14  1  0
  3 15  1  0
  2 16  1  0
  2 17  1  0
  1 18  1  0
  1 19  1  0
  1 20  1  0
M  END
>  <atom_map>  (2) 
{1: 1, 2: 2, 3: 3, 4: 4}

>  <torsion_atom_ids>  (2) 
(1, 2, 3, 4)

>  <torsion_angle>  (2) 
-90.0

>  <tpg_mmff94_opt_v>  (2) 
-1.256957

>  <potential_energy>  (2) 
-148728.08637

>  <confID>  (2) 
1

>  <smiles>  (2) 
[H]C([H])([H])C([H])([H])C([H])([H])C([H])([H])C([H])([H])C([H])([H])[H]

>  <rel_potential_energy>  (2) 
1.93041

>  <botlzmann_weight>  (2) 
0.0

>  <parent_mol>  (2) 
<rdkit.Chem.rdchem.Mol object at 0x2b428c6b9f80>

>  <parent_torsion_atom_ids>  (2) 
(2, 3, 1, 4)

$$$$
mol_2
     RDKit          3D

 20 19  0  0  0  0  0  0  0  0999 V2000
    2.7507   -0.4746   -0.8069 C   0  0  0  0  0  0  0  0  0  0  0  0
    1.7531    0.3330    0.0336 C   0  0  0  0  0  0  0  0  0  0  0  0
    0.3774   -0.3153   -0.0835 C   0  0  0  0  0  0  0  0  0  0  0  0
   -0.5622    0.4326    0.8317 C   0  0  0  0  0  0  0  0  0  0  0  0
    0.1113    1.5686    1.5733 C   0  0  0  0  0  0  0  0  0  0  0  0
    0.6224    1.1673    2.9584 C   0  0  0  0  0  0  0  0  0  0  0  0
    1.3435    0.3476    2.9303 H   0  0  0  0  0  0  0  0  0  0  0  0
    1.0988    2.0253    3.4438 H   0  0  0  0  0  0  0  0  0  0  0  0
   -0.2106    0.8501    3.5957 H   0  0  0  0  0  0  0  0  0  0  0  0
   -0.6969    2.2856    1.7891 H   0  0  0  0  0  0  0  0  0  0  0  0
    0.8178    2.2022    1.0360 H   0  0  0  0  0  0  0  0  0  0  0  0
   -1.0527   -0.2612    1.5251 H   0  0  0  0  0  0  0  0  0  0  0  0
   -1.3697    0.8493    0.2153 H   0  0  0  0  0  0  0  0  0  0  0  0
    0.4238   -1.3704    0.2107 H   0  0  0  0  0  0  0  0  0  0  0  0
    0.0182   -0.2856   -1.1187 H   0  0  0  0  0  0  0  0  0  0  0  0
    2.1690    0.3374    1.0407 H   0  0  0  0  0  0  0  0  0  0  0  0
    1.7658    1.3377   -0.4024 H   0  0  0  0  0  0  0  0  0  0  0  0
    2.8345   -1.5017   -0.4369 H   0  0  0  0  0  0  0  0  0  0  0  0
    3.7431   -0.0145   -0.7594 H   0  0  0  0  0  0  0  0  0  0  0  0
    2.4429   -0.5093   -1.8571 H   0  0  0  0  0  0  0  0  0  0  0  0
  1  2  1  0
  2  3  1  0
  3  4  1  0
  4  5  1  0
  5  6  1  0
  6  7  1  0
  6  8  1  0
  6  9  1  0
  5 10  1  0
  5 11  1  0
  4 12  1  0
  4 13  1  0
  3 14  1  0
  3 15  1  0
  2 16  1  0
  2 17  1  0
  1 18  1  0
  1 19  1  0
  1 20  1  0
M  END
>  <atom_map>  (3) 
{1: 1, 2: 2, 3: 3, 4: 4}

>  <torsion_atom_ids>  (3) 
(1, 2, 3, 4)

>  <torsion_angle>  (3) 
-0.0

>  <tpg_mmff94_opt_v>  (3) 
14.438331

>  <potential_energy>  (3) 
-148715.72232

>  <confID>  (3) 
2

>  <smiles>  (3) 
[H]C([H])([H])C([H])([H])C([H])([H])C([H])([H])C([H])([H])C([H])([H])[H]

>  <rel_potential_energy>  (3) 
14.29446

>  <botlzmann_weight>  (3) 
0.0

>  <parent_mol>  (3) 
<rdkit.Chem.rdchem.Mol object at 0x2b428c6b9f80>

>  <parent_torsion_atom_ids>  (3) 
(2, 3, 1, 4)

$$$$
mol_3
     RDKit          3D

 20 19  0  0  0  0  0  0  0  0999 V2000
    2.7793   -0.4240   -0.7981 C   0  0  0  0  0  0  0  0  0  0  0  0
    1.7519    0.3335    0.0344 C   0  0  0  0  0  0  0  0  0  0  0  0
    0.3775   -0.3165   -0.0845 C   0  0  0  0  0  0  0  0  0  0  0  0
   -0.5611    0.4333    0.8320 C   0  0  0  0  0  0  0  0  0  0  0  0
   -1.2487    1.5956    0.1492 C   0  0  0  0  0  0  0  0  0  0  0  0
   -0.3997    2.8197   -0.1443 C   0  0  0  0  0  0  0  0  0  0  0  0
    0.2371    2.6621   -1.0187 H   0  0  0  0  0  0  0  0  0  0  0  0
   -1.0456    3.6738   -0.3750 H   0  0  0  0  0  0  0  0  0  0  0  0
    0.2225    3.0917    0.7136 H   0  0  0  0  0  0  0  0  0  0  0  0
   -2.0646    1.9215    0.8082 H   0  0  0  0  0  0  0  0  0  0  0  0
   -1.7328    1.2627   -0.7771 H   0  0  0  0  0  0  0  0  0  0  0  0
   -0.0724    0.7586    1.7580 H   0  0  0  0  0  0  0  0  0  0  0  0
   -1.3485   -0.2675    1.1402 H   0  0  0  0  0  0  0  0  0  0  0  0
    0.4475   -1.3605    0.2443 H   0  0  0  0  0  0  0  0  0  0  0  0
    0.0263   -0.3234   -1.1222 H   0  0  0  0  0  0  0  0  0  0  0  0
    2.0860    0.3302    1.0791 H   0  0  0  0  0  0  0  0  0  0  0  0
    1.7529    1.3712   -0.2996 H   0  0  0  0  0  0  0  0  0  0  0  0
    2.8633   -1.4643   -0.4679 H   0  0  0  0  0  0  0  0  0  0  0  0
    3.7645    0.0430   -0.7000 H   0  0  0  0  0  0  0  0  0  0  0  0
    2.5049   -0.4193   -1.8579 H   0  0  0  0  0  0  0  0  0  0  0  0
  1  2  1  0
  2  3  1  0
  3  4  1  0
  4  5  1  0
  5  6  1  0
  6  7  1  0
  6  8  1  0
  6  9  1  0
  5 10  1  0
  5 11  1  0
  4 12  1  0
  4 13  1  0
  3 14  1  0
  3 15  1  0
  2 16  1  0
  2 17  1  0
  1 18  1  0
  1 19  1  0
  1 20  1  0
M  END
>  <atom_map>  (4) 
{1: 1, 2: 2, 3: 3, 4: 4}

>  <torsion_atom_ids>  (4) 
(1, 2, 3, 4)

>  <torsion_angle>  (4) 
90.0

>  <tpg_mmff94_opt_v>  (4) 
0.453765

>  <potential_energy>  (4) 
-148727.04275

>  <confID>  (4) 
3

>  <smiles>  (4) 
[H]C([H])([H])C([H])([H])C([H])([H])C([H])([H])C([H])([H])C([H])([H])[H]

>  <rel_potential_energy>  (4) 
2.97403

>  <botlzmann_weight>  (4) 
0.0

>  <parent_mol>  (4) 
<rdkit.Chem.rdchem.Mol object at 0x2b428c6b9f80>

>  <parent_torsion_atom_ids>  (4) 
(2, 3, 1, 4)

$$$$
mol_4
     RDKit          3D

 20 19  0  0  0  0  0  0  0  0999 V2000
    2.7711   -0.3626   -0.8541 C   0  0  0  0  0  0  0  0  0  0  0  0
    1.7515    0.3337    0.0348 C   0  0  0  0  0  0  0  0  0  0  0  0
    0.3775   -0.3171   -0.0850 C   0  0  0  0  0  0  0  0  0  0  0  0
   -0.5606    0.4336    0.8321 C   0  0  0  0  0  0  0  0  0  0  0  0
   -1.9705   -0.1136    0.8101 C   0  0  0  0  0  0  0  0  0  0  0  0
   -2.6890    0.0867   -0.5164 C   0  0  0  0  0  0  0  0  0  0  0  0
   -2.2282   -0.4993   -1.3167 H   0  0  0  0  0  0  0  0  0  0  0  0
   -3.7317   -0.2360   -0.4301 H   0  0  0  0  0  0  0  0  0  0  0  0
   -2.6849    1.1409   -0.8111 H   0  0  0  0  0  0  0  0  0  0  0  0
   -2.5517    0.3894    1.5926 H   0  0  0  0  0  0  0  0  0  0  0  0
   -1.9665   -1.1806    1.0624 H   0  0  0  0  0  0  0  0  0  0  0  0
   -0.5814    1.4983    0.5670 H   0  0  0  0  0  0  0  0  0  0  0  0
   -0.1867    0.3768    1.8625 H   0  0  0  0  0  0  0  0  0  0  0  0
    0.4301   -1.3744    0.1994 H   0  0  0  0  0  0  0  0  0  0  0  0
    0.0398   -0.2672   -1.1255 H   0  0  0  0  0  0  0  0  0  0  0  0
    2.1018    0.2938    1.0731 H   0  0  0  0  0  0  0  0  0  0  0  0
    1.6973    1.3913   -0.2500 H   0  0  0  0  0  0  0  0  0  0  0  0
    2.8788   -1.4161   -0.5767 H   0  0  0  0  0  0  0  0  0  0  0  0
    3.7501    0.1166   -0.7550 H   0  0  0  0  0  0  0  0  0  0  0  0
    2.4734   -0.3125   -1.9064 H   0  0  0  0  0  0  0  0  0  0  0  0
  1  2  1  0
  2  3  1  0
  3  4  1  0
  4  5  1  0
  5  6  1  0
  6  7  1  0
  6  8  1  0
  6  9  1  0
  5 10  1  0
  5 11  1  0
  4 12  1  0
  4 13  1  0
  3 14  1  0
  3 15  1  0
  2 16  1  0
  2 17  1  0
  1 18  1  0
  1 19  1  0
  1 20  1  0
M  END
>  <atom_map>  (5) 
{1: 1, 2: 2, 3: 3, 4: 4}

>  <torsion_atom_ids>  (5) 
(1, 2, 3, 4)

>  <torsion_angle>  (5) 
180.0

>  <tpg_mmff94_opt_v>  (5) 
-3.888361

>  <potential_energy>  (5) 
-148730.01678

>  <confID>  (5) 
4

>  <smiles>  (5) 
[H]C([H])([H])C([H])([H])C([H])([H])C([H])([H])C([H])([H])C([H])([H])[H]

>  <rel_potential_energy>  (5) 
0.0

>  <botlzmann_weight>  (5) 
0.0

>  <parent_mol>  (5) 
<rdkit.Chem.rdchem.Mol object at 0x2b428c6b9f80>

>  <parent_torsion_atom_ids>  (5) 
(2, 3, 1, 4)

$$$$
mol_0
     RDKit          3D

 17 16  0  0  0  0  0  0  0  0999 V2000
    2.5050    0.5068    0.4970 H   0  0  0  0  0  0  0  0  0  0  0  0
    1.4936    0.7182    0.8599 C   0  0  0  0  0  0  0  0  0  0  0  0
    0.4611   -0.1074    0.0644 C   0  0  0  0  0  0  0  0  0  0  0  0
   -0.7004    0.0181    0.5280 C   0  0  0  0  0  0  0  0  0  0  0  0
   -1.9144    0.0922    0.9648 C   0  0  0  0  0  0  0  0  0  0  0  0
   -2.5222    0.8723    1.8045 C   0  0  0  0  0  0  0  0  0  0  0  0
   -2.1067    0.8127    2.8198 H   0  0  0  0  0  0  0  0  0  0  0  0
   -3.5952    0.6654    1.9207 H   0  0  0  0  0  0  0  0  0  0  0  0
   -2.4615    1.9350    1.5347 H   0  0  0  0  0  0  0  0  0  0  0  0
   -2.1205   -0.9140    1.3800 H   0  0  0  0  0  0  0  0  0  0  0  0
   -2.6034    0.1214    0.0905 H   0  0  0  0  0  0  0  0  0  0  0  0
   -0.7810    1.0491    0.1142 H   0  0  0  0  0  0  0  0  0  0  0  0
   -1.0303   -0.7186   -0.2457 H   0  0  0  0  0  0  0  0  0  0  0  0
    0.8423   -1.1390    0.1517 H   0  0  0  0  0  0  0  0  0  0  0  0
    0.6095    0.1500   -0.9996 H   0  0  0  0  0  0  0  0  0  0  0  0
    1.4605    0.4679    1.9272 H   0  0  0  0  0  0  0  0  0  0  0  0
    1.3131    1.7938    0.7478 H   0  0  0  0  0  0  0  0  0  0  0  0
  1  2  1  0
  2  3  1  0
  3  4  1  0
  4  5  1  0
  5  6  1  0
  6  7  1  0
  6  8  1  0
  6  9  1  0
  5 10  1  0
  5 11  1  0
  4 12  1  0
  4 13  1  0
  3 14  1  0
  3 15  1  0
  2 16  1  0
  2 17  1  0
M  END
>  <atom_map>  (6) 
{2: 1, 3: 3, 4: 2, 5: 4}

>  <torsion_atom_ids>  (6) 
(2, 4, 3, 5)

>  <torsion_angle>  (6) 
-180.0

>  <tpg_mmff94_opt_v>  (6) 
2938.909565

>  <potential_energy>  (6) 
-123894.33422

>  <confID>  (6) 
0

>  <smiles>  (6) 
[H]C([H])([H])C([H])([H])C([H])([H])C([H])([H])C([H])([H])[H]

>  <rel_potential_energy>  (6) 
24835.68256

>  <botlzmann_weight>  (6) 
0.0

>  <parent_mol>  (6) 
<rdkit.Chem.rdchem.Mol object at 0x2b428c6b8360>

>  <parent_torsion_atom_ids>  (6) 
(4, 3, 2, 5)

$$$$
mol_1
     RDKit          3D

 17 16  0  0  0  0  0  0  0  0999 V2000
    1.7387    1.2918   -0.4357 H   0  0  0  0  0  0  0  0  0  0  0  0
    1.7421    0.2505   -0.0978 C   0  0  0  0  0  0  0  0  0  0  0  0
    0.3302   -0.3228   -0.0752 C   0  0  0  0  0  0  0  0  0  0  0  0
   -0.5574    0.4511    0.8457 C   0  0  0  0  0  0  0  0  0  0  0  0
   -1.9265   -0.1254    0.7866 C   0  0  0  0  0  0  0  0  0  0  0  0
   -1.8797   -1.1712    1.8771 C   0  0  0  0  0  0  0  0  0  0  0  0
   -2.8561   -1.6647    1.9439 H   0  0  0  0  0  0  0  0  0  0  0  0
   -1.1428   -1.9583    1.6903 H   0  0  0  0  0  0  0  0  0  0  0  0
   -1.6820   -0.7360    2.8636 H   0  0  0  0  0  0  0  0  0  0  0  0
   -2.6791    0.6279    1.0431 H   0  0  0  0  0  0  0  0  0  0  0  0
   -2.1951   -0.5580   -0.1822 H   0  0  0  0  0  0  0  0  0  0  0  0
   -0.1372    0.5122    1.8573 H   0  0  0  0  0  0  0  0  0  0  0  0
   -0.6054    1.4867    0.4834 H   0  0  0  0  0  0  0  0  0  0  0  0
   -0.0626   -0.3028   -1.0994 H   0  0  0  0  0  0  0  0  0  0  0  0
    0.3982   -1.3762    0.2174 H   0  0  0  0  0  0  0  0  0  0  0  0
    2.3733   -0.3254   -0.7821 H   0  0  0  0  0  0  0  0  0  0  0  0
    2.1975    0.2119    0.8970 H   0  0  0  0  0  0  0  0  0  0  0  0
  1  2  1  0
  2  3  1  0
  3  4  1  0
  4  5  1  0
  5  6  1  0
  6  7  1  0
  6  8  1  0
  6  9  1  0
  5 10  1  0
  5 11  1  0
  4 12  1  0
  4 13  1  0
  3 14  1  0
  3 15  1  0
  2 16  1  0
  2 17  1  0
M  END
>  <atom_map>  (7) 
{2: 1, 3: 3, 4: 2, 5: 4}

>  <torsion_atom_ids>  (7) 
(2, 4, 3, 5)

>  <torsion_angle>  (7) 
-90.0

>  <tpg_mmff94_opt_v>  (7) 
2.320632

>  <potential_energy>  (7) 
-124059.93032

>  <confID>  (7) 
1

>  <smiles>  (7) 
[H]C([H])([H])C([H])([H])C([H])([H])C([H])([H])C([H])([H])[H]

>  <rel_potential_energy>  (7) 
24670.08646

>  <botlzmann_weight>  (7) 
0.0

>  <parent_mol>  (7) 
<rdkit.Chem.rdchem.Mol object at 0x2b428c6b8360>

>  <parent_torsion_atom_ids>  (7) 
(4, 3, 2, 5)

$$$$
mol_2
     RDKit          3D

 17 16  0  0  0  0  0  0  0  0999 V2000
    2.5060    0.2912   -0.4298 H   0  0  0  0  0  0  0  0  0  0  0  0
    1.6672    0.7089    0.1382 C   0  0  0  0  0  0  0  0  0  0  0  0
    0.4410   -0.1977   -0.0048 C   0  0  0  0  0  0  0  0  0  0  0  0
   -0.6878    0.1761    0.6562 C   0  0  0  0  0  0  0  0  0  0  0  0
   -1.9068    0.0244    0.9058 C   0  0  0  0  0  0  0  0  0  0  0  0
   -3.0436   -0.7150    0.6388 C   0  0  0  0  0  0  0  0  0  0  0  0
   -3.3461   -0.6258   -0.4124 H   0  0  0  0  0  0  0  0  0  0  0  0
   -2.8885   -1.7859    0.8197 H   0  0  0  0  0  0  0  0  0  0  0  0
   -3.9167   -0.4218    1.2369 H   0  0  0  0  0  0  0  0  0  0  0  0
   -1.9348   -0.1023    2.0136 H   0  0  0  0  0  0  0  0  0  0  0  0
   -2.3629    1.0385    0.8491 H   0  0  0  0  0  0  0  0  0  0  0  0
   -0.6847    1.2275    0.2935 H   0  0  0  0  0  0  0  0  0  0  0  0
   -0.2367    0.3312    1.6593 H   0  0  0  0  0  0  0  0  0  0  0  0
    0.2400   -0.3004   -1.0795 H   0  0  0  0  0  0  0  0  0  0  0  0
    0.7518   -1.2008    0.3121 H   0  0  0  0  0  0  0  0  0  0  0  0
    1.9767    0.7971    1.1840 H   0  0  0  0  0  0  0  0  0  0  0  0
    1.4639    1.7106   -0.2517 H   0  0  0  0  0  0  0  0  0  0  0  0
  1  2  1  0
  2  3  1  0
  3  4  1  0
  4  5  1  0
  5  6  1  0
  6  7  1  0
  6  8  1  0
  6  9  1  0
  5 10  1  0
  5 11  1  0
  4 12  1  0
  4 13  1  0
  3 14  1  0
  3 15  1  0
  2 16  1  0
  2 17  1  0
M  END
>  <atom_map>  (8) 
{2: 1, 3: 3, 4: 2, 5: 4}

>  <torsion_atom_ids>  (8) 
(2, 4, 3, 5)

>  <torsion_angle>  (8) 
0.0

>  <tpg_mmff94_opt_v>  (8) 
2493.007485

>  <potential_energy>  (8) 
-123956.57964

>  <confID>  (8) 
2

>  <smiles>  (8) 
[H]C([H])([H])C([H])([H])C([H])([H])C([H])([H])C([H])([H])[H]

>  <rel_potential_energy>  (8) 
24773.43714

>  <botlzmann_weight>  (8) 
0.0

>  <parent_mol>  (8) 
<rdkit.Chem.rdchem.Mol object at 0x2b428c6b8360>

>  <parent_torsion_atom_ids>  (8) 
(4, 3, 2, 5)

$$$$
mol_3
     RDKit          3D

 17 16  0  0  0  0  0  0  0  0999 V2000
    1.8182    1.2386   -0.3314 H   0  0  0  0  0  0  0  0  0  0  0  0
    1.7648    0.1891   -0.0244 C   0  0  0  0  0  0  0  0  0  0  0  0
    0.3303   -0.3228   -0.0752 C   0  0  0  0  0  0  0  0  0  0  0  0
   -0.5574    0.4511    0.8457 C   0  0  0  0  0  0  0  0  0  0  0  0
   -1.9265   -0.1254    0.7866 C   0  0  0  0  0  0  0  0  0  0  0  0
   -2.5609    0.6729   -0.3293 C   0  0  0  0  0  0  0  0  0  0  0  0
   -3.5986    0.3450   -0.4607 H   0  0  0  0  0  0  0  0  0  0  0  0
   -2.5986    1.7452   -0.1051 H   0  0  0  0  0  0  0  0  0  0  0  0
   -2.0646    0.5367   -1.2950 H   0  0  0  0  0  0  0  0  0  0  0  0
   -1.9575   -1.2011    0.5873 H   0  0  0  0  0  0  0  0  0  0  0  0
   -2.4707    0.0636    1.7182 H   0  0  0  0  0  0  0  0  0  0  0  0
   -0.1776    0.3288    1.8689 H   0  0  0  0  0  0  0  0  0  0  0  0
   -0.5125    1.5281    0.6418 H   0  0  0  0  0  0  0  0  0  0  0  0
   -0.0128   -0.2636   -1.1137 H   0  0  0  0  0  0  0  0  0  0  0  0
    0.3375   -1.3858    0.1964 H   0  0  0  0  0  0  0  0  0  0  0  0
    2.3987   -0.3943   -0.6997 H   0  0  0  0  0  0  0  0  0  0  0  0
    2.1777    0.1037    0.9860 H   0  0  0  0  0  0  0  0  0  0  0  0
  1  2  1  0
  2  3  1  0
  3  4  1  0
  4  5  1  0
  5  6  1  0
  6  7  1  0
  6  8  1  0
  6  9  1  0
  5 10  1  0
  5 11  1  0
  4 12  1  0
  4 13  1  0
  3 14  1  0
  3 15  1  0
  2 16  1  0
  2 17  1  0
M  END
>  <atom_map>  (9) 
{2: 1, 3: 3, 4: 2, 5: 4}

>  <torsion_atom_ids>  (9) 
(2, 4, 3, 5)

>  <torsion_angle>  (9) 
90.0

>  <tpg_mmff94_opt_v>  (9) 
2.319687

>  <potential_energy>  (9) 
-124059.93119

>  <confID>  (9) 
3

>  <smiles>  (9) 
[H]C([H])([H])C([H])([H])C([H])([H])C([H])([H])C([H])([H])[H]

>  <rel_potential_energy>  (9) 
24670.08559

>  <botlzmann_weight>  (9) 
0.0

>  <parent_mol>  (9) 
<rdkit.Chem.rdchem.Mol object at 0x2b428c6b8360>

>  <parent_torsion_atom_ids>  (9) 
(4, 3, 2, 5)

$$$$
mol_4
     RDKit          3D

 17 16  0  0  0  0  0  0  0  0999 V2000
    0.0710   -2.0995   -1.3491 H   0  0  0  0  0  0  0  0  0  0  0  0
    0.0769   -1.8947   -0.1925 C   0  0  0  0  0  0  0  0  0  0  0  0
    0.2330   -0.3634   -0.0791 C   0  0  0  0  0  0  0  0  0  0  0  0
   -0.5948    0.5183    0.9134 C   0  0  0  0  0  0  0  0  0  0  0  0
   -1.7919   -0.1520    0.7228 C   0  0  0  0  0  0  0  0  0  0  0  0
   -2.7695   -0.6754    0.5872 C   0  0  0  0  0  0  0  0  0  0  0  0
   -2.8558   -1.1477   -0.4081 H   0  0  0  0  0  0  0  0  0  0  0  0
   -2.7866   -1.4996    1.2870 H   0  0  0  0  0  0  0  0  0  0  0  0
   -3.6920   -0.1394    0.7146 H   0  0  0  0  0  0  0  0  0  0  0  0
   -2.1472    0.7763    0.0789 H   0  0  0  0  0  0  0  0  0  0  0  0
   -2.0812    0.0933    1.8352 H   0  0  0  0  0  0  0  0  0  0  0  0
   -0.1561    0.3916    1.9077 H   0  0  0  0  0  0  0  0  0  0  0  0
   -0.4965    1.5742    0.6096 H   0  0  0  0  0  0  0  0  0  0  0  0
    1.2749   -0.2181    0.2592 H   0  0  0  0  0  0  0  0  0  0  0  0
    0.2200    0.0620   -1.1035 H   0  0  0  0  0  0  0  0  0  0  0  0
   -0.8590   -2.4542    0.3051 H   0  0  0  0  0  0  0  0  0  0  0  0
    0.9967   -2.2565    0.3111 H   0  0  0  0  0  0  0  0  0  0  0  0
  1  2  1  0
  2  3  1  0
  3  4  1  0
  4  5  1  0
  5  6  1  0
  6  7  1  0
  6  8  1  0
  6  9  1  0
  5 10  1  0
  5 11  1  0
  4 12  1  0
  4 13  1  0
  3 14  1  0
  3 15  1  0
  2 16  1  0
  2 17  1  0
M  END
>  <atom_map>  (10) 
{2: 1, 3: 3, 4: 2, 5: 4}

>  <torsion_atom_ids>  (10) 
(2, 4, 3, 5)

>  <torsion_angle>  (10) 
180.0

>  <tpg_mmff94_opt_v>  (10) 
2931.621115

>  <potential_energy>  (10) 
-123866.59364

>  <confID>  (10) 
4

>  <smiles>  (10) 
[H]C([H])([H])C([H])([H])C([H])([H])C([H])([H])C([H])([H])[H]

>  <rel_potential_energy>  (10) 
24863.42314

>  <botlzmann_weight>  (10) 
0.0

>  <parent_mol>  (10) 
<rdkit.Chem.rdchem.Mol object at 0x2b428c6b8360>

>  <parent_torsion_atom_ids>  (10) 
(4, 3, 2, 5)

$$$$
mol_0
     RDKit          3D

 17 16  0  0  0  0  0  0  0  0999 V2000
   -0.2147   -2.3782    0.3333 H   0  0  0  0  0  0  0  0  0  0  0  0
    0.6733   -1.7412    0.3746 C   0  0  0  0  0  0  0  0  0  0  0  0
    0.3702   -0.3234   -0.0880 C   0  0  0  0  0  0  0  0  0  0  0  0
   -0.5598    0.4454    0.8417 C   0  0  0  0  0  0  0  0  0  0  0  0
   -1.9641   -0.1191    0.8035 C   0  0  0  0  0  0  0  0  0  0  0  0
   -2.9276    0.6196    1.7184 C   0  0  0  0  0  0  0  0  0  0  0  0
   -3.9269    0.1776    1.6556 H   0  0  0  0  0  0  0  0  0  0  0  0
   -3.0039    1.6745    1.4359 H   0  0  0  0  0  0  0  0  0  0  0  0
   -2.5965    0.5661    2.7604 H   0  0  0  0  0  0  0  0  0  0  0  0
   -1.9624   -1.1728    1.1028 H   0  0  0  0  0  0  0  0  0  0  0  0
   -2.3530   -0.0806   -0.2212 H   0  0  0  0  0  0  0  0  0  0  0  0
   -0.1676    0.4246    1.8654 H   0  0  0  0  0  0  0  0  0  0  0  0
   -0.5823    1.4967    0.5301 H   0  0  0  0  0  0  0  0  0  0  0  0
    1.3193    0.2230   -0.1516 H   0  0  0  0  0  0  0  0  0  0  0  0
   -0.0426   -0.3501   -1.1034 H   0  0  0  0  0  0  0  0  0  0  0  0
    1.4320   -2.1921   -0.2732 H   0  0  0  0  0  0  0  0  0  0  0  0
    1.0576   -1.7469    1.3995 H   0  0  0  0  0  0  0  0  0  0  0  0
  1  2  1  0
  2  3  1  0
  3  4  1  0
  4  5  1  0
  5  6  1  0
  6  7  1  0
  6  8  1  0
  6  9  1  0
  5 10  1  0
  5 11  1  0
  4 12  1  0
  4 13  1  0
  3 14  1  0
  3 15  1  0
  2 16  1  0
  2 17  1  0
M  END
>  <atom_map>  (11) 
{2: 1, 3: 3, 4: 2, 5: 4}

>  <torsion_atom_ids>  (11) 
(2, 4, 3, 5)

>  <torsion_angle>  (11) 
-180.0

>  <tpg_mmff94_opt_v>  (11) 
-4.061953

>  <potential_energy>  (11) 
-124067.06408

>  <confID>  (11) 
0

>  <smiles>  (11) 
[H]C([H])([H])C([H])([H])C([H])([H])C([H])([H])C([H])([H])[H]

>  <rel_potential_energy>  (11) 
24662.9527

>  <botlzmann_weight>  (11) 
0.0

>  <parent_mol>  (11) 
<rdkit.Chem.rdchem.Mol object at 0x2b428c6b8360>

>  <parent_torsion_atom_ids>  (11) 
(4, 3, 2, 5)

$$$$
mol_1
     RDKit          3D

 17 16  0  0  0  0  0  0  0  0999 V2000
    0.4186   -2.6271   -0.1430 H   0  0  0  0  0  0  0  0  0  0  0  0
    0.5747   -1.7535    0.6357 C   0  0  0  0  0  0  0  0  0  0  0  0
    0.3267   -0.2929   -0.0490 C   0  0  0  0  0  0  0  0  0  0  0  0
   -0.6362    0.3712    0.8032 C   0  0  0  0  0  0  0  0  0  0  0  0
   -1.8441   -0.0754    0.8029 C   0  0  0  0  0  0  0  0  0  0  0  0
   -2.9730   -0.4939    0.8038 C   0  0  0  0  0  0  0  0  0  0  0  0
   -3.4990   -0.8786    1.7178 H   0  0  0  0  0  0  0  0  0  0  0  0
   -3.6808    0.3703    0.6301 H   0  0  0  0  0  0  0  0  0  0  0  0
   -3.2220   -1.2688    0.0735 H   0  0  0  0  0  0  0  0  0  0  0  0
   -2.1722    0.9548    0.7442 H   0  0  0  0  0  0  0  0  0  0  0  0
   -1.6430   -0.5430    1.8253 H   0  0  0  0  0  0  0  0  0  0  0  0
   -0.5822    1.3990    0.3648 H   0  0  0  0  0  0  0  0  0  0  0  0
   -0.1477    0.6002    1.7832 H   0  0  0  0  0  0  0  0  0  0  0  0
    1.2118    0.4306   -0.2375 H   0  0  0  0  0  0  0  0  0  0  0  0
   -0.2739   -0.4904   -1.0438 H   0  0  0  0  0  0  0  0  0  0  0  0
    1.6411   -1.8247    0.9331 H   0  0  0  0  0  0  0  0  0  0  0  0
   -0.0863   -2.0246    1.4871 H   0  0  0  0  0  0  0  0  0  0  0  0
  1  2  1  0
  2  3  1  0
  3  4  1  0
  4  5  1  0
  5  6  1  0
  6  7  1  0
  6  8  1  0
  6  9  1  0
  5 10  1  0
  5 11  1  0
  4 12  1  0
  4 13  1  0
  3 14  1  0
  3 15  1  0
  2 16  1  0
  2 17  1  0
M  END
>  <atom_map>  (12) 
{2: 1, 3: 3, 4: 2, 5: 4}

>  <torsion_atom_ids>  (12) 
(2, 4, 3, 5)

>  <torsion_angle>  (12) 
-90.0

>  <tpg_mmff94_opt_v>  (12) 
2831.919222

>  <potential_energy>  (12) 
-123906.06148

>  <confID>  (12) 
1

>  <smiles>  (12) 
[H]C([H])([H])C([H])([H])C([H])([H])C([H])([H])C([H])([H])[H]

>  <rel_potential_energy>  (12) 
24823.9553

>  <botlzmann_weight>  (12) 
0.0

>  <parent_mol>  (12) 
<rdkit.Chem.rdchem.Mol object at 0x2b428c6b8360>

>  <parent_torsion_atom_ids>  (12) 
(4, 3, 2, 5)

$$$$
mol_2
     RDKit          3D

 17 16  0  0  0  0  0  0  0  0999 V2000
    0.3970   -2.2125    1.0324 H   0  0  0  0  0  0  0  0  0  0  0  0
    1.0859   -1.4822    0.6030 C   0  0  0  0  0  0  0  0  0  0  0  0
    0.3714   -0.3230   -0.0881 C   0  0  0  0  0  0  0  0  0  0  0  0
   -0.5606    0.4443    0.8410 C   0  0  0  0  0  0  0  0  0  0  0  0
   -1.9645   -0.1184    0.8042 C   0  0  0  0  0  0  0  0  0  0  0  0
   -2.1110   -1.3020   -0.1398 C   0  0  0  0  0  0  0  0  0  0  0  0
   -3.1399   -1.6750   -0.0526 H   0  0  0  0  0  0  0  0  0  0  0  0
   -1.4780   -2.1559    0.1010 H   0  0  0  0  0  0  0  0  0  0  0  0
   -2.0029   -1.0178   -1.1910 H   0  0  0  0  0  0  0  0  0  0  0  0
   -2.6751    0.6663    0.5182 H   0  0  0  0  0  0  0  0  0  0  0  0
   -2.2527   -0.4341    1.8143 H   0  0  0  0  0  0  0  0  0  0  0  0
   -0.1759    0.4646    1.8673 H   0  0  0  0  0  0  0  0  0  0  0  0
   -0.6013    1.4903    0.5116 H   0  0  0  0  0  0  0  0  0  0  0  0
    1.1723    0.3810   -0.3595 H   0  0  0  0  0  0  0  0  0  0  0  0
   -0.0359   -0.6104   -1.0586 H   0  0  0  0  0  0  0  0  0  0  0  0
    1.7337   -2.0016   -0.1105 H   0  0  0  0  0  0  0  0  0  0  0  0
    1.7206   -1.1107    1.4150 H   0  0  0  0  0  0  0  0  0  0  0  0
  1  2  1  0
  2  3  1  0
  3  4  1  0
  4  5  1  0
  5  6  1  0
  6  7  1  0
  6  8  1  0
  6  9  1  0
  5 10  1  0
  5 11  1  0
  4 12  1  0
  4 13  1  0
  3 14  1  0
  3 15  1  0
  2 16  1  0
  2 17  1  0
M  END
>  <atom_map>  (13) 
{2: 1, 3: 3, 4: 2, 5: 4}

>  <torsion_atom_ids>  (13) 
(2, 4, 3, 5)

>  <torsion_angle>  (13) 
0.0

>  <tpg_mmff94_opt_v>  (13) 
8.58715

>  <potential_energy>  (13) 
-124056.59543

>  <confID>  (13) 
2

>  <smiles>  (13) 
[H]C([H])([H])C([H])([H])C([H])([H])C([H])([H])C([H])([H])[H]

>  <rel_potential_energy>  (13) 
24673.42135

>  <botlzmann_weight>  (13) 
0.0

>  <parent_mol>  (13) 
<rdkit.Chem.rdchem.Mol object at 0x2b428c6b8360>

>  <parent_torsion_atom_ids>  (13) 
(4, 3, 2, 5)

$$$$
mol_3
     RDKit          3D

 17 16  0  0  0  0  0  0  0  0999 V2000
   -0.8560   -1.9362   -0.4505 H   0  0  0  0  0  0  0  0  0  0  0  0
   -0.2029   -1.2958   -1.0183 C   0  0  0  0  0  0  0  0  0  0  0  0
    0.3030   -0.2785   -0.0297 C   0  0  0  0  0  0  0  0  0  0  0  0
   -0.5963    0.3661    0.7867 C   0  0  0  0  0  0  0  0  0  0  0  0
   -1.8603   -0.0848    0.8001 C   0  0  0  0  0  0  0  0  0  0  0  0
   -2.9441   -0.4698    0.8098 C   0  0  0  0  0  0  0  0  0  0  0  0
   -3.8389    0.1813    1.1536 H   0  0  0  0  0  0  0  0  0  0  0  0
   -3.1397   -1.4794    1.2954 H   0  0  0  0  0  0  0  0  0  0  0  0
   -3.2328   -0.6811   -0.2755 H   0  0  0  0  0  0  0  0  0  0  0  0
   -2.1846    0.9217    1.1205 H   0  0  0  0  0  0  0  0  0  0  0  0
   -1.6088   -0.6763    1.7360 H   0  0  0  0  0  0  0  0  0  0  0  0
   -0.1598    0.5763    1.8285 H   0  0  0  0  0  0  0  0  0  0  0  0
   -0.5830    1.4352    0.4322 H   0  0  0  0  0  0  0  0  0  0  0  0
    0.8946   -0.9657    0.6682 H   0  0  0  0  0  0  0  0  0  0  0  0
    1.0439    0.4075   -0.4388 H   0  0  0  0  0  0  0  0  0  0  0  0
   -0.8401   -0.7332   -1.7410 H   0  0  0  0  0  0  0  0  0  0  0  0
    0.5786   -1.9372   -1.3688 H   0  0  0  0  0  0  0  0  0  0  0  0
  1  2  1  0
  2  3  1  0
  3  4  1  0
  4  5  1  0
  5  6  1  0
  6  7  1  0
  6  8  1  0
  6  9  1  0
  5 10  1  0
  5 11  1  0
  4 12  1  0
  4 13  1  0
  3 14  1  0
  3 15  1  0
  2 16  1  0
  2 17  1  0
M  END
>  <atom_map>  (14) 
{2: 1, 3: 3, 4: 2, 5: 4}

>  <torsion_atom_ids>  (14) 
(2, 4, 3, 5)

>  <torsion_angle>  (14) 
90.0

>  <tpg_mmff94_opt_v>  (14) 
2848.893945

>  <potential_energy>  (14) 
-123882.53959

>  <confID>  (14) 
3

>  <smiles>  (14) 
[H]C([H])([H])C([H])([H])C([H])([H])C([H])([H])C([H])([H])[H]

>  <rel_potential_energy>  (14) 
24847.47719

>  <botlzmann_weight>  (14) 
0.0

>  <parent_mol>  (14) 
<rdkit.Chem.rdchem.Mol object at 0x2b428c6b8360>

>  <parent_torsion_atom_ids>  (14) 
(4, 3, 2, 5)

$$$$
mol_4
     RDKit          3D

 17 16  0  0  0  0  0  0  0  0999 V2000
   -0.2147   -2.3782    0.3333 H   0  0  0  0  0  0  0  0  0  0  0  0
    0.6733   -1.7412    0.3746 C   0  0  0  0  0  0  0  0  0  0  0  0
    0.3702   -0.3234   -0.0880 C   0  0  0  0  0  0  0  0  0  0  0  0
   -0.5598    0.4454    0.8417 C   0  0  0  0  0  0  0  0  0  0  0  0
   -1.9641   -0.1191    0.8035 C   0  0  0  0  0  0  0  0  0  0  0  0
   -2.9276    0.6196    1.7184 C   0  0  0  0  0  0  0  0  0  0  0  0
   -3.9269    0.1776    1.6556 H   0  0  0  0  0  0  0  0  0  0  0  0
   -3.0039    1.6745    1.4359 H   0  0  0  0  0  0  0  0  0  0  0  0
   -2.5965    0.5661    2.7604 H   0  0  0  0  0  0  0  0  0  0  0  0
   -1.9624   -1.1728    1.1028 H   0  0  0  0  0  0  0  0  0  0  0  0
   -2.3530   -0.0806   -0.2212 H   0  0  0  0  0  0  0  0  0  0  0  0
   -0.1676    0.4246    1.8654 H   0  0  0  0  0  0  0  0  0  0  0  0
   -0.5823    1.4967    0.5301 H   0  0  0  0  0  0  0  0  0  0  0  0
    1.3193    0.2230   -0.1516 H   0  0  0  0  0  0  0  0  0  0  0  0
   -0.0426   -0.3501   -1.1034 H   0  0  0  0  0  0  0  0  0  0  0  0
    1.4320   -2.1921   -0.2732 H   0  0  0  0  0  0  0  0  0  0  0  0
    1.0576   -1.7469    1.3995 H   0  0  0  0  0  0  0  0  0  0  0  0
  1  2  1  0
  2  3  1  0
  3  4  1  0
  4  5  1  0
  5  6  1  0
  6  7  1  0
  6  8  1  0
  6  9  1  0
  5 10  1  0
  5 11  1  0
  4 12  1  0
  4 13  1  0
  3 14  1  0
  3 15  1  0
  2 16  1  0
  2 17  1  0
M  END
>  <atom_map>  (15) 
{2: 1, 3: 3, 4: 2, 5: 4}

>  <torsion_atom_ids>  (15) 
(2, 4, 3, 5)

>  <torsion_angle>  (15) 
180.0

>  <tpg_mmff94_opt_v>  (15) 
-4.061953

>  <potential_energy>  (15) 
-124067.06404

>  <confID>  (15) 
4

>  <smiles>  (15) 
[H]C([H])([H])C([H])([H])C([H])([H])C([H])([H])C([H])([H])[H]

>  <rel_potential_energy>  (15) 
24662.95274

>  <botlzmann_weight>  (15) 
0.0

>  <parent_mol>  (15) 
<rdkit.Chem.rdchem.Mol object at 0x2b428c6b8360>

>  <parent_torsion_atom_ids>  (15) 
(4, 3, 2, 5)

$$$$
